Hello, my name is Lirone
I am 25New text.
New line.